/*--------------------------------*- C++ -*----------------------------------*\
| =========                 |                                                 |
| \\      /  F ield         | OpenFOAM: The Open Source CFD Toolbox           |
|  \\    /   O peration     | Version:  4.x                                   |
|   \\  /    A nd           | Web:      www.OpenFOAM.org                      |
|    \\/     M anipulation  |                                                 |
\*---------------------------------------------------------------------------*/
FoamFile
{
    version     2.0;
    format      ascii;
    class       dictionary;
    location    "system";
    object      controlDict;
}
// * * * * * * * * * * * * * * * * * * * * * * * * * * * * * * * * * * * * * //

application     $application;

startFrom       $startFrom;

startTime       $startTime;

stopAt          $stopAt;

endTime         $endTime;

deltaT          $deltaT;

writeControl    $writeControl;

writeInterval   $writeInterval;

purgeWrite      $purgeWrite;

writeFormat     $writeFormat;

writePrecision  $writePrecision;

writeCompression $writeCompression;

timeFormat      $timeFormat;

timePrecision   $timePrecision;

runTimeModifiable $runTimeModifiable;

functions
{
    #includeFunc streamlines
}

// ************************************************************************* //
